# generated using pymatgen
data_Na2Ca2(SiO3)3
_symmetry_space_group_name_H-M   'P 1'
_cell_length_a   10.62657960
_cell_length_b   10.62657960
_cell_length_c   13.42943331
_cell_angle_alpha   90.00000000
_cell_angle_beta   90.00000000
_cell_angle_gamma   120.00000000
_symmetry_Int_Tables_number   1
_chemical_formula_structural   Na2Ca2(SiO3)3
_chemical_formula_sum   'Na12 Ca12 Si18 O54'
_cell_volume   1313.33439442
_cell_formula_units_Z   6
loop_
 _symmetry_equiv_pos_site_id
 _symmetry_equiv_pos_as_xyz
  1  'x, y, z'
loop_
 _atom_site_type_symbol
 _atom_site_label
 _atom_site_symmetry_multiplicity
 _atom_site_fract_x
 _atom_site_fract_y
 _atom_site_fract_z
 _atom_site_occupancy
  Na  Na0  1  0.17771800  0.35543600  0.33685000  1.0
  Na  Na1  1  0.17771800  0.82228200  0.33685000  1.0
  Na  Na2  1  0.64456400  0.82228200  0.33685000  1.0
  Na  Na3  1  0.33333333  0.66666667  0.91208167  1.0
  Na  Na4  1  0.84438467  0.68876933  0.67018333  1.0
  Na  Na5  1  0.84438467  0.15561533  0.67018333  1.0
  Na  Na6  1  0.31123067  0.15561533  0.67018333  1.0
  Na  Na7  1  0.00000000  0.00000000  0.24541500  1.0
  Na  Na8  1  0.51105133  0.02210267  0.00351667  1.0
  Na  Na9  1  0.51105133  0.48894867  0.00351667  1.0
  Na  Na10  1  0.97789733  0.48894867  0.00351667  1.0
  Na  Na11  1  0.66666667  0.33333333  0.57874833  1.0
  Ca  Ca12  1  0.48495933  0.96991867  0.50334767  1.0
  Ca  Ca13  1  0.48495933  0.51504067  0.50334767  1.0
  Ca  Ca14  1  0.03008133  0.51504067  0.50334767  1.0
  Ca  Ca15  1  0.33333333  0.66666667  0.66890467  1.0
  Ca  Ca16  1  0.15162600  0.30325200  0.83668100  1.0
  Ca  Ca17  1  0.15162600  0.84837400  0.83668100  1.0
  Ca  Ca18  1  0.69674800  0.84837400  0.83668100  1.0
  Ca  Ca19  1  0.00000000  0.00000000  0.00223800  1.0
  Ca  Ca20  1  0.81829267  0.63658533  0.17001433  1.0
  Ca  Ca21  1  0.81829267  0.18170733  0.17001433  1.0
  Ca  Ca22  1  0.36341467  0.18170733  0.17001433  1.0
  Ca  Ca23  1  0.66666667  0.33333333  0.33557133  1.0
  Si  Si24  1  0.17999433  0.35998867  0.10060267  1.0
  Si  Si25  1  0.17999433  0.82000567  0.10060267  1.0
  Si  Si26  1  0.64001133  0.82000567  0.10060267  1.0
  Si  Si27  1  0.48475967  0.96951933  0.23117733  1.0
  Si  Si28  1  0.48475967  0.51524033  0.23117733  1.0
  Si  Si29  1  0.03048067  0.51524033  0.23117733  1.0
  Si  Si30  1  0.84666100  0.69332200  0.43393600  1.0
  Si  Si31  1  0.84666100  0.15333900  0.43393600  1.0
  Si  Si32  1  0.30667800  0.15333900  0.43393600  1.0
  Si  Si33  1  0.15142633  0.30285267  0.56451067  1.0
  Si  Si34  1  0.15142633  0.84857367  0.56451067  1.0
  Si  Si35  1  0.69714733  0.84857367  0.56451067  1.0
  Si  Si36  1  0.51332767  0.02665533  0.76726933  1.0
  Si  Si37  1  0.51332767  0.48667233  0.76726933  1.0
  Si  Si38  1  0.97334467  0.48667233  0.76726933  1.0
  Si  Si39  1  0.81809300  0.63618600  0.89784400  1.0
  Si  Si40  1  0.81809300  0.18190700  0.89784400  1.0
  Si  Si41  1  0.36381400  0.18190700  0.89784400  1.0
  O  O42  1  0.21345333  0.42690667  0.98991367  1.0
  O  O43  1  0.21345333  0.78654667  0.98991367  1.0
  O  O44  1  0.57309333  0.78654667  0.98991367  1.0
  O  O45  1  0.45199167  0.90398333  0.34137133  1.0
  O  O46  1  0.45199167  0.54800833  0.34137133  1.0
  O  O47  1  0.09601667  0.54800833  0.34137133  1.0
  O  O48  1  0.09352300  0.18704600  0.11461800  1.0
  O  O49  1  0.09352300  0.90647700  0.11461800  1.0
  O  O50  1  0.81295400  0.90647700  0.11461800  1.0
  O  O51  1  0.57218600  0.14437200  0.21827600  1.0
  O  O52  1  0.57218600  0.42781400  0.21827600  1.0
  O  O53  1  0.85562800  0.42781400  0.21827600  1.0
  O  O54  1  0.08238933  0.66657267  0.16571267  1.0
  O  O55  1  0.58418333  0.91761067  0.16571267  1.0
  O  O56  1  0.33342733  0.41581667  0.16571267  1.0
  O  O57  1  0.08238933  0.41581667  0.16571267  1.0
  O  O58  1  0.33342733  0.91761067  0.16571267  1.0
  O  O59  1  0.58418333  0.66657267  0.16571267  1.0
  O  O60  1  0.88012000  0.76024000  0.32324700  1.0
  O  O61  1  0.88012000  0.11988000  0.32324700  1.0
  O  O62  1  0.23976000  0.11988000  0.32324700  1.0
  O  O63  1  0.11865833  0.23731667  0.67470467  1.0
  O  O64  1  0.11865833  0.88134167  0.67470467  1.0
  O  O65  1  0.76268333  0.88134167  0.67470467  1.0
  O  O66  1  0.76018967  0.52037933  0.44795133  1.0
  O  O67  1  0.76018967  0.23981033  0.44795133  1.0
  O  O68  1  0.47962067  0.23981033  0.44795133  1.0
  O  O69  1  0.23885267  0.47770533  0.55160933  1.0
  O  O70  1  0.23885267  0.76114733  0.55160933  1.0
  O  O71  1  0.52229467  0.76114733  0.55160933  1.0
  O  O72  1  0.74905600  0.99990600  0.49904600  1.0
  O  O73  1  0.25085000  0.25094400  0.49904600  1.0
  O  O74  1  0.00009400  0.74915000  0.49904600  1.0
  O  O75  1  0.74905600  0.74915000  0.49904600  1.0
  O  O76  1  0.00009400  0.25094400  0.49904600  1.0
  O  O77  1  0.25085000  0.99990600  0.49904600  1.0
  O  O78  1  0.54678667  0.09357333  0.65658033  1.0
  O  O79  1  0.54678667  0.45321333  0.65658033  1.0
  O  O80  1  0.90642667  0.45321333  0.65658033  1.0
  O  O81  1  0.78532500  0.57065000  0.00803800  1.0
  O  O82  1  0.78532500  0.21467500  0.00803800  1.0
  O  O83  1  0.42935000  0.21467500  0.00803800  1.0
  O  O84  1  0.42685633  0.85371267  0.78128467  1.0
  O  O85  1  0.42685633  0.57314367  0.78128467  1.0
  O  O86  1  0.14628733  0.57314367  0.78128467  1.0
  O  O87  1  0.90551933  0.81103867  0.88494267  1.0
  O  O88  1  0.90551933  0.09448067  0.88494267  1.0
  O  O89  1  0.18896133  0.09448067  0.88494267  1.0
  O  O90  1  0.41572267  0.33323933  0.83237933  1.0
  O  O91  1  0.91751667  0.58427733  0.83237933  1.0
  O  O92  1  0.66676067  0.08248333  0.83237933  1.0
  O  O93  1  0.41572267  0.08248333  0.83237933  1.0
  O  O94  1  0.66676067  0.58427733  0.83237933  1.0
  O  O95  1  0.91751667  0.33323933  0.83237933  1.0
