# generated using pymatgen
data_NaAl(SiO3)2
_symmetry_space_group_name_H-M   'P 1'
_cell_length_a   9.56377001
_cell_length_b   8.66696001
_cell_length_c   5.29239740
_cell_angle_alpha   90.00000000
_cell_angle_beta   107.77920438
_cell_angle_gamma   90.00000000
_symmetry_Int_Tables_number   1
_chemical_formula_structural   NaAl(SiO3)2
_chemical_formula_sum   'Na4 Al4 Si8 O24'
_cell_volume   417.72927567
_cell_formula_units_Z   4
loop_
 _symmetry_equiv_pos_site_id
 _symmetry_equiv_pos_as_xyz
  1  'x, y, z'
loop_
 _atom_site_type_symbol
 _atom_site_label
 _atom_site_symmetry_multiplicity
 _atom_site_fract_x
 _atom_site_fract_y
 _atom_site_fract_z
 _atom_site_occupancy
  Na  Na0  1  0.00000000  0.29995400  0.75000000  1.0
  Na  Na1  1  0.00000000  0.70004600  0.25000000  1.0
  Na  Na2  1  0.50000000  0.79995400  0.75000000  1.0
  Na  Na3  1  0.50000000  0.20004600  0.25000000  1.0
  Al  Al4  1  0.00000000  0.90498000  0.75000000  1.0
  Al  Al5  1  0.00000000  0.09502000  0.25000000  1.0
  Al  Al6  1  0.50000000  0.40498000  0.75000000  1.0
  Al  Al7  1  0.50000000  0.59502000  0.25000000  1.0
  Si  Si8  1  0.21016950  0.59327650  0.77445700  1.0
  Si  Si9  1  0.78983050  0.59327650  0.72554300  1.0
  Si  Si10  1  0.78983050  0.40672350  0.22554300  1.0
  Si  Si11  1  0.21016950  0.40672350  0.27445700  1.0
  Si  Si12  1  0.71016950  0.09327650  0.77445700  1.0
  Si  Si13  1  0.28983050  0.09327650  0.72554300  1.0
  Si  Si14  1  0.28983050  0.90672350  0.22554300  1.0
  Si  Si15  1  0.71016950  0.90672350  0.27445700  1.0
  O  O16  1  0.14754400  0.49420400  0.49445000  1.0
  O  O17  1  0.85245600  0.49420400  0.00555000  1.0
  O  O18  1  0.85245600  0.50579600  0.50555000  1.0
  O  O19  1  0.14754400  0.50579600  0.99445000  1.0
  O  O20  1  0.13851550  0.23749750  0.20899500  1.0
  O  O21  1  0.86148450  0.23749750  0.29100500  1.0
  O  O22  1  0.86148450  0.76250250  0.79100500  1.0
  O  O23  1  0.13851550  0.76250250  0.70899500  1.0
  O  O24  1  0.39133700  0.57581500  0.87318100  1.0
  O  O25  1  0.60866300  0.57581500  0.62681900  1.0
  O  O26  1  0.60866300  0.42418500  0.12681900  1.0
  O  O27  1  0.39133700  0.42418500  0.37318100  1.0
  O  O28  1  0.64754400  0.99420400  0.49445000  1.0
  O  O29  1  0.35245600  0.99420400  0.00555000  1.0
  O  O30  1  0.35245600  0.00579600  0.50555000  1.0
  O  O31  1  0.64754400  0.00579600  0.99445000  1.0
  O  O32  1  0.63851550  0.73749750  0.20899500  1.0
  O  O33  1  0.36148450  0.73749750  0.29100500  1.0
  O  O34  1  0.36148450  0.26250250  0.79100500  1.0
  O  O35  1  0.63851550  0.26250250  0.70899500  1.0
  O  O36  1  0.89133700  0.07581500  0.87318100  1.0
  O  O37  1  0.10866300  0.07581500  0.62681900  1.0
  O  O38  1  0.10866300  0.92418500  0.12681900  1.0
  O  O39  1  0.89133700  0.92418500  0.37318100  1.0
