# generated using pymatgen
data_NaCaScZn(SiO3)4
_symmetry_space_group_name_H-M   'P 1'
_cell_length_a   9.96088400
_cell_length_b   9.10570000
_cell_length_c   5.35251979
_cell_angle_alpha   90.00000000
_cell_angle_beta   106.42606524
_cell_angle_gamma   90.00000000
_symmetry_Int_Tables_number   1
_chemical_formula_structural   NaCaScZn(SiO3)4
_chemical_formula_sum   'Na2 Ca2 Sc2 Zn2 Si8 O24'
_cell_volume   465.66336859
_cell_formula_units_Z   2
loop_
 _symmetry_equiv_pos_site_id
 _symmetry_equiv_pos_as_xyz
  1  'x, y, z'
loop_
 _atom_site_type_symbol
 _atom_site_label
 _atom_site_symmetry_multiplicity
 _atom_site_fract_x
 _atom_site_fract_y
 _atom_site_fract_z
 _atom_site_occupancy
  Na  Na0  1  0.00000000  0.69792200  0.50000000  1.0
  Na  Na1  1  0.50000000  0.19792200  0.50000000  1.0
  Ca  Ca2  1  0.00000000  0.30008800  0.00000000  1.0
  Ca  Ca3  1  0.50000000  0.80008800  0.00000000  1.0
  Sc  Sc4  1  0.00000000  0.89772800  0.00000000  1.0
  Sc  Sc5  1  0.50000000  0.39772800  0.00000000  1.0
  Zn  Zn6  1  0.00000000  0.09946100  0.50000000  1.0
  Zn  Zn7  1  0.50000000  0.59946100  0.50000000  1.0
  Si  Si8  1  0.21197100  0.41027100  0.51451100  1.0
  Si  Si9  1  0.78802900  0.41027100  0.48548900  1.0
  Si  Si10  1  0.78828250  0.59029650  0.98732800  1.0
  Si  Si11  1  0.21171750  0.59029650  0.01267200  1.0
  Si  Si12  1  0.71197100  0.91027100  0.51451100  1.0
  Si  Si13  1  0.28802900  0.91027100  0.48548900  1.0
  Si  Si14  1  0.28828250  0.09029650  0.98732800  1.0
  Si  Si15  1  0.71171750  0.09029650  0.01267200  1.0
  O  O16  1  0.14985350  0.48429450  0.74710800  1.0
  O  O17  1  0.85014650  0.48429450  0.25289200  1.0
  O  O18  1  0.84943950  0.51129450  0.75974900  1.0
  O  O19  1  0.15056050  0.51129450  0.24025100  1.0
  O  O20  1  0.13774450  0.25380250  0.42796600  1.0
  O  O21  1  0.86225550  0.25380250  0.57203400  1.0
  O  O22  1  0.85974350  0.74885750  0.06071900  1.0
  O  O23  1  0.14025650  0.74885750  0.93928100  1.0
  O  O24  1  0.38194050  0.41708250  0.60774000  1.0
  O  O25  1  0.61805950  0.41708250  0.39226000  1.0
  O  O26  1  0.61746500  0.58650100  0.90071400  1.0
  O  O27  1  0.38253500  0.58650100  0.09928600  1.0
  O  O28  1  0.64985350  0.98429450  0.74710800  1.0
  O  O29  1  0.35014650  0.98429450  0.25289200  1.0
  O  O30  1  0.34943950  0.01129450  0.75974900  1.0
  O  O31  1  0.65056050  0.01129450  0.24025100  1.0
  O  O32  1  0.63774450  0.75380250  0.42796600  1.0
  O  O33  1  0.36225550  0.75380250  0.57203400  1.0
  O  O34  1  0.35974350  0.24885750  0.06071900  1.0
  O  O35  1  0.64025650  0.24885750  0.93928100  1.0
  O  O36  1  0.88194050  0.91708250  0.60774000  1.0
  O  O37  1  0.11805950  0.91708250  0.39226000  1.0
  O  O38  1  0.11746500  0.08650100  0.90071400  1.0
  O  O39  1  0.88253500  0.08650100  0.09928600  1.0
