# generated using pymatgen
data_NaCa3ScZn3(SiO3)8
_symmetry_space_group_name_H-M   'P 1'
_cell_length_a   5.33214300
_cell_length_b   9.09709400
_cell_length_c   9.89849195
_cell_angle_alpha   90.00000000
_cell_angle_beta   104.98581476
_cell_angle_gamma   90.00000000
_symmetry_Int_Tables_number   1
_chemical_formula_structural   NaCa3ScZn3(SiO3)8
_chemical_formula_sum   'Na1 Ca3 Sc1 Zn3 Si8 O24'
_cell_volume   463.81637667
_cell_formula_units_Z   1
loop_
 _symmetry_equiv_pos_site_id
 _symmetry_equiv_pos_as_xyz
  1  'x, y, z'
loop_
 _atom_site_type_symbol
 _atom_site_label
 _atom_site_symmetry_multiplicity
 _atom_site_fract_x
 _atom_site_fract_y
 _atom_site_fract_z
 _atom_site_occupancy
  Na  Na0  1  0.50000000  0.19646000  0.50000000  1.0
  Ca  Ca1  1  0.00000000  0.70430300  0.00000000  1.0
  Ca  Ca2  1  0.00000000  0.80303800  0.50000000  1.0
  Ca  Ca3  1  0.50000000  0.29596800  0.00000000  1.0
  Sc  Sc4  1  0.00000000  0.39667900  0.50000000  1.0
  Zn  Zn5  1  0.50000000  0.59950000  0.50000000  1.0
  Zn  Zn6  1  0.00000000  0.09516800  0.00000000  1.0
  Zn  Zn7  1  0.50000000  0.90554100  0.00000000  1.0
  Si  Si8  1  0.30575500  0.90987800  0.28761900  1.0
  Si  Si9  1  0.80430000  0.40782300  0.78708500  1.0
  Si  Si10  1  0.69424500  0.90987800  0.71238100  1.0
  Si  Si11  1  0.19570000  0.40782300  0.21291500  1.0
  Si  Si12  1  0.19635700  0.09032100  0.71312700  1.0
  Si  Si13  1  0.69468600  0.59200100  0.21215300  1.0
  Si  Si14  1  0.80364300  0.09032100  0.28687300  1.0
  Si  Si15  1  0.30531400  0.59200100  0.78784700  1.0
  O  O16  1  0.22184100  0.91124000  0.11699300  1.0
  O  O17  1  0.72523100  0.41574200  0.61741600  1.0
  O  O18  1  0.77815900  0.91124000  0.88300700  1.0
  O  O19  1  0.27476900  0.41574200  0.38258400  1.0
  O  O20  1  0.27922500  0.08999300  0.88323300  1.0
  O  O21  1  0.78145100  0.58606600  0.38294000  1.0
  O  O22  1  0.72077500  0.08999300  0.11676700  1.0
  O  O23  1  0.21854900  0.58606600  0.61706000  1.0
  O  O24  1  0.28965500  0.75322200  0.36133400  1.0
  O  O25  1  0.78874900  0.25309300  0.86179600  1.0
  O  O26  1  0.71034500  0.75322200  0.63866600  1.0
  O  O27  1  0.21125100  0.25309300  0.13820400  1.0
  O  O28  1  0.20247200  0.24860800  0.63999500  1.0
  O  O29  1  0.71106300  0.74757800  0.13880800  1.0
  O  O30  1  0.79752800  0.24860800  0.36000500  1.0
  O  O31  1  0.28893700  0.74757800  0.86119200  1.0
  O  O32  1  0.60235200  0.98194300  0.34883900  1.0
  O  O33  1  0.10055500  0.48349000  0.85000800  1.0
  O  O34  1  0.39764800  0.98194300  0.65116100  1.0
  O  O35  1  0.89944500  0.48349000  0.14999200  1.0
  O  O36  1  0.90388200  0.01407100  0.65098000  1.0
  O  O37  1  0.40048400  0.51660300  0.15057900  1.0
  O  O38  1  0.09611800  0.01407100  0.34902000  1.0
  O  O39  1  0.59951600  0.51660300  0.84942100  1.0
