# generated using pymatgen
data_Fe2O3
_symmetry_space_group_name_H-M   'P 1'
_cell_length_a   9.55611401
_cell_length_b   9.55611401
_cell_length_c   9.55611401
_cell_angle_alpha   90.00000000
_cell_angle_beta   90.00000000
_cell_angle_gamma   90.00000000
_symmetry_Int_Tables_number   1
_chemical_formula_structural   Fe2O3
_chemical_formula_sum   'Fe32 O48'
_cell_volume   872.65778403
_cell_formula_units_Z   16
loop_
 _symmetry_equiv_pos_site_id
 _symmetry_equiv_pos_as_xyz
  1  'x, y, z'
loop_
 _atom_site_type_symbol
 _atom_site_label
 _atom_site_symmetry_multiplicity
 _atom_site_fract_x
 _atom_site_fract_y
 _atom_site_fract_z
 _atom_site_occupancy
  Fe  Fe0  1  0.75000000  0.21193900  0.00000000  1.0
  Fe  Fe1  1  0.50000000  0.25000000  0.71193900  1.0
  Fe  Fe2  1  0.25000000  0.78806100  0.00000000  1.0
  Fe  Fe3  1  0.28806100  0.50000000  0.75000000  1.0
  Fe  Fe4  1  0.25000000  0.21193900  0.50000000  1.0
  Fe  Fe5  1  0.71193900  0.50000000  0.25000000  1.0
  Fe  Fe6  1  0.28806100  0.00000000  0.25000000  1.0
  Fe  Fe7  1  0.71193900  0.00000000  0.75000000  1.0
  Fe  Fe8  1  0.50000000  0.00000000  0.00000000  1.0
  Fe  Fe9  1  0.75000000  0.78806100  0.50000000  1.0
  Fe  Fe10  1  0.00000000  0.25000000  0.28806100  1.0
  Fe  Fe11  1  0.00000000  0.75000000  0.71193900  1.0
  Fe  Fe12  1  0.50000000  0.75000000  0.28806100  1.0
  Fe  Fe13  1  0.50000000  0.50000000  0.50000000  1.0
  Fe  Fe14  1  0.50000000  0.00000000  0.50000000  1.0
  Fe  Fe15  1  0.00000000  0.00000000  0.50000000  1.0
  Fe  Fe16  1  0.25000000  0.71193900  0.50000000  1.0
  Fe  Fe17  1  0.00000000  0.75000000  0.21193900  1.0
  Fe  Fe18  1  0.75000000  0.28806100  0.50000000  1.0
  Fe  Fe19  1  0.78806100  0.00000000  0.25000000  1.0
  Fe  Fe20  1  0.75000000  0.71193900  0.00000000  1.0
  Fe  Fe21  1  0.21193900  0.00000000  0.75000000  1.0
  Fe  Fe22  1  0.78806100  0.50000000  0.75000000  1.0
  Fe  Fe23  1  0.21193900  0.50000000  0.25000000  1.0
  Fe  Fe24  1  0.00000000  0.50000000  0.50000000  1.0
  Fe  Fe25  1  0.25000000  0.28806100  0.00000000  1.0
  Fe  Fe26  1  0.50000000  0.75000000  0.78806100  1.0
  Fe  Fe27  1  0.50000000  0.25000000  0.21193900  1.0
  Fe  Fe28  1  0.00000000  0.25000000  0.78806100  1.0
  Fe  Fe29  1  0.00000000  0.00000000  0.00000000  1.0
  Fe  Fe30  1  0.00000000  0.50000000  0.00000000  1.0
  Fe  Fe31  1  0.50000000  0.50000000  0.00000000  1.0
  O  O32  1  0.40732300  0.64023900  0.63374100  1.0
  O  O33  1  0.35976100  0.36625900  0.59267700  1.0
  O  O34  1  0.86625900  0.90732300  0.64023900  1.0
  O  O35  1  0.14023900  0.86625900  0.59267700  1.0
  O  O36  1  0.13374100  0.90732300  0.14023900  1.0
  O  O37  1  0.36625900  0.90732300  0.85976100  1.0
  O  O38  1  0.36625900  0.09267700  0.64023900  1.0
  O  O39  1  0.64023900  0.13374100  0.59267700  1.0
  O  O40  1  0.86625900  0.09267700  0.85976100  1.0
  O  O41  1  0.14023900  0.36625900  0.40732300  1.0
  O  O42  1  0.40732300  0.14023900  0.36625900  1.0
  O  O43  1  0.59267700  0.64023900  0.13374100  1.0
  O  O44  1  0.85976100  0.13374100  0.40732300  1.0
  O  O45  1  0.40732300  0.35976100  0.86625900  1.0
  O  O46  1  0.64023900  0.63374100  0.40732300  1.0
  O  O47  1  0.63374100  0.90732300  0.35976100  1.0
  O  O48  1  0.35976100  0.86625900  0.40732300  1.0
  O  O49  1  0.85976100  0.63374100  0.59267700  1.0
  O  O50  1  0.59267700  0.85976100  0.63374100  1.0
  O  O51  1  0.40732300  0.85976100  0.13374100  1.0
  O  O52  1  0.63374100  0.09267700  0.14023900  1.0
  O  O53  1  0.59267700  0.14023900  0.86625900  1.0
  O  O54  1  0.59267700  0.35976100  0.36625900  1.0
  O  O55  1  0.13374100  0.09267700  0.35976100  1.0
  O  O56  1  0.90732300  0.14023900  0.13374100  1.0
  O  O57  1  0.85976100  0.86625900  0.09267700  1.0
  O  O58  1  0.36625900  0.40732300  0.14023900  1.0
  O  O59  1  0.64023900  0.36625900  0.09267700  1.0
  O  O60  1  0.63374100  0.40732300  0.64023900  1.0
  O  O61  1  0.86625900  0.40732300  0.35976100  1.0
  O  O62  1  0.86625900  0.59267700  0.14023900  1.0
  O  O63  1  0.14023900  0.63374100  0.09267700  1.0
  O  O64  1  0.36625900  0.59267700  0.35976100  1.0
  O  O65  1  0.64023900  0.86625900  0.90732300  1.0
  O  O66  1  0.90732300  0.64023900  0.86625900  1.0
  O  O67  1  0.09267700  0.14023900  0.63374100  1.0
  O  O68  1  0.35976100  0.63374100  0.90732300  1.0
  O  O69  1  0.90732300  0.85976100  0.36625900  1.0
  O  O70  1  0.14023900  0.13374100  0.90732300  1.0
  O  O71  1  0.13374100  0.40732300  0.85976100  1.0
  O  O72  1  0.85976100  0.36625900  0.90732300  1.0
  O  O73  1  0.35976100  0.13374100  0.09267700  1.0
  O  O74  1  0.09267700  0.35976100  0.13374100  1.0
  O  O75  1  0.90732300  0.35976100  0.63374100  1.0
  O  O76  1  0.13374100  0.59267700  0.64023900  1.0
  O  O77  1  0.09267700  0.64023900  0.36625900  1.0
  O  O78  1  0.09267700  0.85976100  0.86625900  1.0
  O  O79  1  0.63374100  0.59267700  0.85976100  1.0
