# generated using pymatgen
data_Fe2O3
_symmetry_space_group_name_H-M   'P 1'
_cell_length_a   10.36545399
_cell_length_b   6.00785800
_cell_length_c   14.60922379
_cell_angle_alpha   90.00000000
_cell_angle_beta   90.51615133
_cell_angle_gamma   90.00000000
_symmetry_Int_Tables_number   1
_chemical_formula_structural   Fe2O3
_chemical_formula_sum   'Fe32 O48'
_cell_volume   909.74045296
_cell_formula_units_Z   16
loop_
 _symmetry_equiv_pos_site_id
 _symmetry_equiv_pos_as_xyz
  1  'x, y, z'
loop_
 _atom_site_type_symbol
 _atom_site_label
 _atom_site_symmetry_multiplicity
 _atom_site_fract_x
 _atom_site_fract_y
 _atom_site_fract_z
 _atom_site_occupancy
  Fe  Fe0  1  0.33976500  0.00000000  0.94953200  1.0
  Fe  Fe1  1  0.99219500  0.00000000  0.98998900  1.0
  Fe  Fe2  1  0.58418750  0.75094950  0.83555700  1.0
  Fe  Fe3  1  0.00690600  0.00000000  0.63603300  1.0
  Fe  Fe4  1  0.58418750  0.24905050  0.83555700  1.0
  Fe  Fe5  1  0.67394500  0.00000000  0.67883700  1.0
  Fe  Fe6  1  0.74966250  0.24677550  0.50142800  1.0
  Fe  Fe7  1  0.74966250  0.75322450  0.50142800  1.0
  Fe  Fe8  1  0.33362100  0.00000000  0.32377000  1.0
  Fe  Fe9  1  0.41429750  0.24545750  0.16584800  1.0
  Fe  Fe10  1  0.32944500  0.00000000  0.71574600  1.0
  Fe  Fe11  1  0.41429750  0.75454250  0.16584800  1.0
  Fe  Fe12  1  0.50256400  0.00000000  0.50141700  1.0
  Fe  Fe13  1  0.99896300  0.00000000  0.37227000  1.0
  Fe  Fe14  1  0.16925300  0.00000000  0.16539900  1.0
  Fe  Fe15  1  0.66001500  0.00000000  0.03921000  1.0
  Fe  Fe16  1  0.83976500  0.50000000  0.94953200  1.0
  Fe  Fe17  1  0.49219500  0.50000000  0.98998900  1.0
  Fe  Fe18  1  0.08418750  0.25094950  0.83555700  1.0
  Fe  Fe19  1  0.50690600  0.50000000  0.63603300  1.0
  Fe  Fe20  1  0.08418750  0.74905050  0.83555700  1.0
  Fe  Fe21  1  0.17394500  0.50000000  0.67883700  1.0
  Fe  Fe22  1  0.24966250  0.74677550  0.50142800  1.0
  Fe  Fe23  1  0.24966250  0.25322450  0.50142800  1.0
  Fe  Fe24  1  0.83362100  0.50000000  0.32377000  1.0
  Fe  Fe25  1  0.91429750  0.74545750  0.16584800  1.0
  Fe  Fe26  1  0.82944500  0.50000000  0.71574600  1.0
  Fe  Fe27  1  0.91429750  0.25454250  0.16584800  1.0
  Fe  Fe28  1  0.00256400  0.50000000  0.50141700  1.0
  Fe  Fe29  1  0.49896300  0.50000000  0.37227000  1.0
  Fe  Fe30  1  0.66925300  0.50000000  0.16539900  1.0
  Fe  Fe31  1  0.16001500  0.50000000  0.03921000  1.0
  O  O32  1  0.43495350  0.74861150  0.91391800  1.0
  O  O33  1  0.43495350  0.25138850  0.91391800  1.0
  O  O34  1  0.01447400  0.00000000  0.76270500  1.0
  O  O35  1  0.15738600  0.00000000  0.91105800  1.0
  O  O36  1  0.58847100  0.23406400  0.58466500  1.0
  O  O37  1  0.51017000  0.00000000  0.75663800  1.0
  O  O38  1  0.73189600  0.25132800  0.75248700  1.0
  O  O39  1  0.65133800  0.00000000  0.90827600  1.0
  O  O40  1  0.66737700  0.00000000  0.43757900  1.0
  O  O41  1  0.58847100  0.76593600  0.58466500  1.0
  O  O42  1  0.82731600  0.00000000  0.58798700  1.0
  O  O43  1  0.73189600  0.74867200  0.75248700  1.0
  O  O44  1  0.17556300  0.00000000  0.42085300  1.0
  O  O45  1  0.25917300  0.22291600  0.24121900  1.0
  O  O46  1  0.41157700  0.23628700  0.42085200  1.0
  O  O47  1  0.33346500  0.00000000  0.57819600  1.0
  O  O48  1  0.33333333  0.00000000  0.08305000  1.0
  O  O49  1  0.25917300  0.77708400  0.24121900  1.0
  O  O50  1  0.48191500  0.00000000  0.24157900  1.0
  O  O51  1  0.41157700  0.76371300  0.42085200  1.0
  O  O52  1  0.84132300  0.00000000  0.07852600  1.0
  O  O53  1  0.99904100  0.00000000  0.24091500  1.0
  O  O54  1  0.57611000  0.72969300  0.08174400  1.0
  O  O55  1  0.57611000  0.27030700  0.08174400  1.0
  O  O56  1  0.93495350  0.24861150  0.91391800  1.0
  O  O57  1  0.93495350  0.75138850  0.91391800  1.0
  O  O58  1  0.51447400  0.50000000  0.76270500  1.0
  O  O59  1  0.65738600  0.50000000  0.91105800  1.0
  O  O60  1  0.08847100  0.73406400  0.58466500  1.0
  O  O61  1  0.01017000  0.50000000  0.75663800  1.0
  O  O62  1  0.23189600  0.75132800  0.75248700  1.0
  O  O63  1  0.15133800  0.50000000  0.90827600  1.0
  O  O64  1  0.16737700  0.50000000  0.43757900  1.0
  O  O65  1  0.08847100  0.26593600  0.58466500  1.0
  O  O66  1  0.32731600  0.50000000  0.58798700  1.0
  O  O67  1  0.23189600  0.24867200  0.75248700  1.0
  O  O68  1  0.67556300  0.50000000  0.42085300  1.0
  O  O69  1  0.75917300  0.72291600  0.24121900  1.0
  O  O70  1  0.91157700  0.73628700  0.42085200  1.0
  O  O71  1  0.83346500  0.50000000  0.57819600  1.0
  O  O72  1  0.83333333  0.50000000  0.08305000  1.0
  O  O73  1  0.75917300  0.27708400  0.24121900  1.0
  O  O74  1  0.98191500  0.50000000  0.24157900  1.0
  O  O75  1  0.91157700  0.26371300  0.42085200  1.0
  O  O76  1  0.34132300  0.50000000  0.07852600  1.0
  O  O77  1  0.49904100  0.50000000  0.24091500  1.0
  O  O78  1  0.07611000  0.22969300  0.08174400  1.0
  O  O79  1  0.07611000  0.77030700  0.08174400  1.0
