# generated using pymatgen
data_SiO2
_symmetry_space_group_name_H-M   'P 1'
_cell_length_a   25.57868746
_cell_length_b   5.23596826
_cell_length_c   12.16019524
_cell_angle_alpha   90.00000000
_cell_angle_beta   108.98406587
_cell_angle_gamma   90.00000000
_symmetry_Int_Tables_number   1
_chemical_formula_structural   SiO2
_chemical_formula_sum   'Si28 O56'
_cell_volume   1540.02383532
_cell_formula_units_Z   28
loop_
 _symmetry_equiv_pos_site_id
 _symmetry_equiv_pos_as_xyz
  1  'x, y, z'
loop_
 _atom_site_type_symbol
 _atom_site_label
 _atom_site_symmetry_multiplicity
 _atom_site_fract_x
 _atom_site_fract_y
 _atom_site_fract_z
 _atom_site_occupancy
  Si  Si0  1  0.36928907  0.00000000  0.71373522  1.0
  Si  Si1  1  0.21762572  0.50000000  0.51864442  1.0
  Si  Si2  1  0.28237428  0.00000000  0.48135558  1.0
  Si  Si3  1  0.21759733  0.50000000  0.78149979  1.0
  Si  Si4  1  0.43665681  0.50000000  0.08945620  1.0
  Si  Si5  1  0.13071093  0.50000000  0.28626478  1.0
  Si  Si6  1  0.37661748  0.00000000  0.11789441  1.0
  Si  Si7  1  0.12338252  0.50000000  0.88210559  1.0
  Si  Si8  1  0.06884228  0.00000000  0.16811751  1.0
  Si  Si9  1  0.06334319  0.00000000  0.91054380  1.0
  Si  Si10  1  0.28787661  0.00000000  0.86108120  1.0
  Si  Si11  1  0.21212339  0.50000000  0.13891880  1.0
  Si  Si12  1  0.28240267  0.00000000  0.21850021  1.0
  Si  Si13  1  0.43115772  0.50000000  0.83188249  1.0
  Si  Si14  1  0.86928907  0.50000000  0.71373522  1.0
  Si  Si15  1  0.71762572  0.00000000  0.51864442  1.0
  Si  Si16  1  0.78237428  0.50000000  0.48135558  1.0
  Si  Si17  1  0.71759733  0.00000000  0.78149979  1.0
  Si  Si18  1  0.93665681  0.00000000  0.08945620  1.0
  Si  Si19  1  0.63071093  0.00000000  0.28626478  1.0
  Si  Si20  1  0.87661748  0.50000000  0.11789441  1.0
  Si  Si21  1  0.62338252  0.00000000  0.88210559  1.0
  Si  Si22  1  0.56884228  0.50000000  0.16811751  1.0
  Si  Si23  1  0.56334319  0.50000000  0.91054380  1.0
  Si  Si24  1  0.78787661  0.50000000  0.86108120  1.0
  Si  Si25  1  0.71212339  0.00000000  0.13891880  1.0
  Si  Si26  1  0.78240267  0.50000000  0.21850021  1.0
  Si  Si27  1  0.93115772  0.00000000  0.83188249  1.0
  O  O28  1  0.41368489  0.50000000  0.94847997  1.0
  O  O29  1  0.16666667  0.50000000  0.01207718  1.0
  O  O30  1  0.08631511  0.00000000  0.05152003  1.0
  O  O31  1  0.24987704  0.74973927  0.84656089  1.0
  O  O32  1  0.34430181  0.00000000  0.57369266  1.0
  O  O33  1  0.49711149  0.50000000  0.86629315  1.0
  O  O34  1  0.40678151  0.75025505  0.75659733  1.0
  O  O35  1  0.15587892  0.50000000  0.78886935  1.0
  O  O36  1  0.31785894  0.00000000  0.76322192  1.0
  O  O37  1  0.00288851  0.00000000  0.13370685  1.0
  O  O38  1  0.33333333  0.00000000  0.98792282  1.0
  O  O39  1  0.09321849  0.25025505  0.24340267  1.0
  O  O40  1  0.41512478  0.75036031  0.13756842  1.0
  O  O41  1  0.40678151  0.24974495  0.75659733  1.0
  O  O42  1  0.09321849  0.74974495  0.24340267  1.0
  O  O43  1  0.41512478  0.24963969  0.13756842  1.0
  O  O44  1  0.08487522  0.25036031  0.86243158  1.0
  O  O45  1  0.25000000  0.75000000  0.50000000  1.0
  O  O46  1  0.28623550  0.00000000  0.35256961  1.0
  O  O47  1  0.25012296  0.75026073  0.15343911  1.0
  O  O48  1  0.25012296  0.24973927  0.15343911  1.0
  O  O49  1  0.21376450  0.50000000  0.64743039  1.0
  O  O50  1  0.34412108  0.00000000  0.21113065  1.0
  O  O51  1  0.25000000  0.25000000  0.50000000  1.0
  O  O52  1  0.24987704  0.25026073  0.84656089  1.0
  O  O53  1  0.08487522  0.74963969  0.86243158  1.0
  O  O54  1  0.18214106  0.50000000  0.23677808  1.0
  O  O55  1  0.15569819  0.50000000  0.42630734  1.0
  O  O56  1  0.91368489  0.00000000  0.94847997  1.0
  O  O57  1  0.66666667  0.00000000  0.01207718  1.0
  O  O58  1  0.58631511  0.50000000  0.05152003  1.0
  O  O59  1  0.74987704  0.24973927  0.84656089  1.0
  O  O60  1  0.84430181  0.50000000  0.57369266  1.0
  O  O61  1  0.99711149  0.00000000  0.86629315  1.0
  O  O62  1  0.90678151  0.25025505  0.75659733  1.0
  O  O63  1  0.65587892  0.00000000  0.78886935  1.0
  O  O64  1  0.81785894  0.50000000  0.76322192  1.0
  O  O65  1  0.50288851  0.50000000  0.13370685  1.0
  O  O66  1  0.83333333  0.50000000  0.98792282  1.0
  O  O67  1  0.59321849  0.75025505  0.24340267  1.0
  O  O68  1  0.91512478  0.25036031  0.13756842  1.0
  O  O69  1  0.90678151  0.74974495  0.75659733  1.0
  O  O70  1  0.59321849  0.24974495  0.24340267  1.0
  O  O71  1  0.91512478  0.74963969  0.13756842  1.0
  O  O72  1  0.58487522  0.75036031  0.86243158  1.0
  O  O73  1  0.75000000  0.25000000  0.50000000  1.0
  O  O74  1  0.78623550  0.50000000  0.35256961  1.0
  O  O75  1  0.75012296  0.25026073  0.15343911  1.0
  O  O76  1  0.75012296  0.74973927  0.15343911  1.0
  O  O77  1  0.71376450  0.00000000  0.64743039  1.0
  O  O78  1  0.84412108  0.50000000  0.21113065  1.0
  O  O79  1  0.75000000  0.75000000  0.50000000  1.0
  O  O80  1  0.74987704  0.75026073  0.84656089  1.0
  O  O81  1  0.58487522  0.24963969  0.86243158  1.0
  O  O82  1  0.68214106  0.00000000  0.23677808  1.0
  O  O83  1  0.65569819  0.00000000  0.42630734  1.0
