# generated using pymatgen
data_SiO2
_symmetry_space_group_name_H-M   'P 1'
_cell_length_a   12.81800393
_cell_length_b   22.37335125
_cell_length_c   4.94022574
_cell_angle_alpha   90.00000000
_cell_angle_beta   103.89698093
_cell_angle_gamma   90.00000000
_symmetry_Int_Tables_number   1
_chemical_formula_structural   SiO2
_chemical_formula_sum   'Si24 O48'
_cell_volume   1375.29638591
_cell_formula_units_Z   24
loop_
 _symmetry_equiv_pos_site_id
 _symmetry_equiv_pos_as_xyz
  1  'x, y, z'
loop_
 _atom_site_type_symbol
 _atom_site_label
 _atom_site_symmetry_multiplicity
 _atom_site_fract_x
 _atom_site_fract_y
 _atom_site_fract_z
 _atom_site_occupancy
  Si  Si0  1  0.57418472  0.06605191  0.30576977  1.0
  Si  Si1  1  0.69559625  0.17839630  0.24781756  1.0
  Si  Si2  1  0.30440375  0.17839630  0.75218244  1.0
  Si  Si3  1  0.61576288  0.24639235  0.70342543  1.0
  Si  Si4  1  0.92581528  0.43394809  0.69423023  1.0
  Si  Si5  1  0.11576288  0.25360765  0.70342543  1.0
  Si  Si6  1  0.38423712  0.24639235  0.29657457  1.0
  Si  Si7  1  0.19559625  0.32160370  0.24781756  1.0
  Si  Si8  1  0.42581528  0.06605191  0.69423023  1.0
  Si  Si9  1  0.88423712  0.25360765  0.29657457  1.0
  Si  Si10  1  0.80440375  0.32160370  0.75218244  1.0
  Si  Si11  1  0.07418472  0.43394809  0.30576977  1.0
  Si  Si12  1  0.07418472  0.56605191  0.30576977  1.0
  Si  Si13  1  0.19559625  0.67839630  0.24781756  1.0
  Si  Si14  1  0.80440376  0.67839630  0.75218244  1.0
  Si  Si15  1  0.11576288  0.74639235  0.70342543  1.0
  Si  Si16  1  0.42581528  0.93394809  0.69423023  1.0
  Si  Si17  1  0.61576288  0.75360765  0.70342543  1.0
  Si  Si18  1  0.88423712  0.74639235  0.29657457  1.0
  Si  Si19  1  0.69559624  0.82160370  0.24781756  1.0
  Si  Si20  1  0.92581528  0.56605191  0.69423023  1.0
  Si  Si21  1  0.38423712  0.75360765  0.29657457  1.0
  Si  Si22  1  0.30440375  0.82160370  0.75218244  1.0
  Si  Si23  1  0.57418472  0.93394809  0.30576977  1.0
  O  O24  1  0.81841497  0.29528194  0.46076235  1.0
  O  O25  1  0.61170907  0.21057552  0.98719805  1.0
  O  O26  1  0.32639187  0.10774248  0.72560441  1.0
  O  O27  1  0.18158503  0.29528194  0.53923765  1.0
  O  O28  1  0.00000000  0.23947086  0.50000000  1.0
  O  O29  1  0.68279982  0.30848871  0.78048444  1.0
  O  O30  1  0.18279982  0.19151129  0.78048444  1.0
  O  O31  1  0.67360813  0.10774248  0.27439559  1.0
  O  O32  1  0.50000000  0.05936993  0.00000000  1.0
  O  O33  1  0.50000000  0.09461776  0.50000000  1.0
  O  O34  1  0.38420227  0.00000000  0.57853075  1.0
  O  O35  1  0.00000000  0.44063007  0.00000000  1.0
  O  O36  1  0.88829093  0.28942448  0.01280195  1.0
  O  O37  1  0.31841497  0.20471806  0.46076235  1.0
  O  O38  1  0.11170907  0.28942448  0.98719805  1.0
  O  O39  1  0.81720018  0.19151129  0.21951556  1.0
  O  O40  1  0.82639187  0.39225752  0.72560441  1.0
  O  O41  1  0.17360813  0.39225752  0.27439559  1.0
  O  O42  1  0.00000000  0.40538224  0.50000000  1.0
  O  O43  1  0.61579773  0.00000000  0.42146925  1.0
  O  O44  1  0.68158503  0.20471806  0.53923765  1.0
  O  O45  1  0.50000000  0.26052914  0.50000000  1.0
  O  O46  1  0.31720018  0.30848871  0.21951556  1.0
  O  O47  1  0.38829093  0.21057552  0.01280195  1.0
  O  O48  1  0.31841497  0.79528194  0.46076235  1.0
  O  O49  1  0.11170907  0.71057552  0.98719805  1.0
  O  O50  1  0.82639187  0.60774248  0.72560441  1.0
  O  O51  1  0.68158503  0.79528194  0.53923765  1.0
  O  O52  1  0.50000000  0.73947086  0.50000000  1.0
  O  O53  1  0.18279982  0.80848871  0.78048444  1.0
  O  O54  1  0.68279982  0.69151129  0.78048444  1.0
  O  O55  1  0.17360813  0.60774248  0.27439559  1.0
  O  O56  1  0.00000000  0.55936993  0.00000000  1.0
  O  O57  1  0.00000000  0.59461776  0.50000000  1.0
  O  O58  1  0.88420227  0.50000000  0.57853075  1.0
  O  O59  1  0.50000000  0.94063007  0.00000000  1.0
  O  O60  1  0.38829093  0.78942448  0.01280195  1.0
  O  O61  1  0.81841497  0.70471806  0.46076235  1.0
  O  O62  1  0.61170907  0.78942448  0.98719805  1.0
  O  O63  1  0.31720018  0.69151129  0.21951556  1.0
  O  O64  1  0.32639187  0.89225752  0.72560441  1.0
  O  O65  1  0.67360813  0.89225752  0.27439559  1.0
  O  O66  1  0.50000000  0.90538224  0.50000000  1.0
  O  O67  1  0.11579773  0.50000000  0.42146925  1.0
  O  O68  1  0.18158503  0.70471806  0.53923765  1.0
  O  O69  1  0.00000000  0.76052914  0.50000000  1.0
  O  O70  1  0.81720018  0.80848871  0.21951556  1.0
  O  O71  1  0.88829093  0.71057552  0.01280195  1.0
