# generated using pymatgen
data_SiO2
_symmetry_space_group_name_H-M   'P 1'
_cell_length_a   19.34512799
_cell_length_b   18.79188999
_cell_length_c   5.45161186
_cell_angle_alpha   90.00000000
_cell_angle_beta   97.34226927
_cell_angle_gamma   90.00000000
_symmetry_Int_Tables_number   1
_chemical_formula_structural   SiO2
_chemical_formula_sum   'Si32 O64'
_cell_volume   1965.58255879
_cell_formula_units_Z   32
loop_
 _symmetry_equiv_pos_site_id
 _symmetry_equiv_pos_as_xyz
  1  'x, y, z'
loop_
 _atom_site_type_symbol
 _atom_site_label
 _atom_site_symmetry_multiplicity
 _atom_site_fract_x
 _atom_site_fract_y
 _atom_site_fract_z
 _atom_site_occupancy
  Si  Si0  1  0.25119150  0.69171250  0.42119300  1.0
  Si  Si1  1  0.17839650  0.57577450  0.13995000  1.0
  Si  Si2  1  0.05839500  0.50000000  0.95937400  1.0
  Si  Si3  1  0.74880850  0.69171250  0.57880700  1.0
  Si  Si4  1  0.17839650  0.42422550  0.13995000  1.0
  Si  Si5  1  0.82160350  0.57577450  0.86005000  1.0
  Si  Si6  1  0.44134600  0.50000000  0.03637900  1.0
  Si  Si7  1  0.32487250  0.42461550  0.20922100  1.0
  Si  Si8  1  0.74880850  0.30828750  0.57880700  1.0
  Si  Si9  1  0.67512750  0.57538450  0.79077900  1.0
  Si  Si10  1  0.94160500  0.50000000  0.04062600  1.0
  Si  Si11  1  0.82160350  0.42422550  0.86005000  1.0
  Si  Si12  1  0.25119150  0.30828750  0.42119300  1.0
  Si  Si13  1  0.67512750  0.42461550  0.79077900  1.0
  Si  Si14  1  0.32487250  0.57538450  0.20922100  1.0
  Si  Si15  1  0.55865400  0.50000000  0.96362100  1.0
  Si  Si16  1  0.75119150  0.19171250  0.42119300  1.0
  Si  Si17  1  0.67839650  0.07577450  0.13995000  1.0
  Si  Si18  1  0.55839500  0.00000000  0.95937400  1.0
  Si  Si19  1  0.24880850  0.19171250  0.57880700  1.0
  Si  Si20  1  0.67839650  0.92422550  0.13995000  1.0
  Si  Si21  1  0.32160350  0.07577450  0.86005000  1.0
  Si  Si22  1  0.94134600  0.00000000  0.03637900  1.0
  Si  Si23  1  0.82487250  0.92461550  0.20922100  1.0
  Si  Si24  1  0.24880850  0.80828750  0.57880700  1.0
  Si  Si25  1  0.17512750  0.07538450  0.79077900  1.0
  Si  Si26  1  0.44160500  0.00000000  0.04062600  1.0
  Si  Si27  1  0.32160350  0.92422550  0.86005000  1.0
  Si  Si28  1  0.75119150  0.80828750  0.42119300  1.0
  Si  Si29  1  0.17512750  0.92461550  0.79077900  1.0
  Si  Si30  1  0.82487250  0.07538450  0.20922100  1.0
  Si  Si31  1  0.05865400  0.00000000  0.96362100  1.0
  O  O32  1  0.18161750  0.64443950  0.32518200  1.0
  O  O33  1  0.01771900  0.50000000  0.21757100  1.0
  O  O34  1  0.32636800  0.50000000  0.36680200  1.0
  O  O35  1  0.32136600  0.64477200  0.38968600  1.0
  O  O36  1  0.81838250  0.35556050  0.67481800  1.0
  O  O37  1  0.17716300  0.50000000  0.29489200  1.0
  O  O38  1  0.18161750  0.35556050  0.32518200  1.0
  O  O39  1  0.25179550  0.42179950  0.01424900  1.0
  O  O40  1  0.39394450  0.57164450  0.06479000  1.0
  O  O41  1  0.32136600  0.35522800  0.38968600  1.0
  O  O42  1  0.89257100  0.57145700  0.05995500  1.0
  O  O43  1  0.98228100  0.50000000  0.78242900  1.0
  O  O44  1  0.10742900  0.42854300  0.94004500  1.0
  O  O45  1  0.48131500  0.50000000  0.78277900  1.0
  O  O46  1  0.74820450  0.42179950  0.98575100  1.0
  O  O47  1  0.75005350  0.27360550  0.29699200  1.0
  O  O48  1  0.60605550  0.42835550  0.93521000  1.0
  O  O49  1  0.39394450  0.42835550  0.06479000  1.0
  O  O50  1  0.24994650  0.27360550  0.70300800  1.0
  O  O51  1  0.74820450  0.57820050  0.98575100  1.0
  O  O52  1  0.81838250  0.64443950  0.67481800  1.0
  O  O53  1  0.89257100  0.42854300  0.05995500  1.0
  O  O54  1  0.10742900  0.57145700  0.94004500  1.0
  O  O55  1  0.82283700  0.50000000  0.70510800  1.0
  O  O56  1  0.75005350  0.72639450  0.29699200  1.0
  O  O57  1  0.67863400  0.35522800  0.61031400  1.0
  O  O58  1  0.24994650  0.72639450  0.70300800  1.0
  O  O59  1  0.60605550  0.57164450  0.93521000  1.0
  O  O60  1  0.25179550  0.57820050  0.01424900  1.0
  O  O61  1  0.67363200  0.50000000  0.63319800  1.0
  O  O62  1  0.67863400  0.64477200  0.61031400  1.0
  O  O63  1  0.51868500  0.50000000  0.21722100  1.0
  O  O64  1  0.68161750  0.14443950  0.32518200  1.0
  O  O65  1  0.51771900  0.00000000  0.21757100  1.0
  O  O66  1  0.82636800  0.00000000  0.36680200  1.0
  O  O67  1  0.82136600  0.14477200  0.38968600  1.0
  O  O68  1  0.31838250  0.85556050  0.67481800  1.0
  O  O69  1  0.67716300  0.00000000  0.29489200  1.0
  O  O70  1  0.68161750  0.85556050  0.32518200  1.0
  O  O71  1  0.75179550  0.92179950  0.01424900  1.0
  O  O72  1  0.89394450  0.07164450  0.06479000  1.0
  O  O73  1  0.82136600  0.85522800  0.38968600  1.0
  O  O74  1  0.39257100  0.07145700  0.05995500  1.0
  O  O75  1  0.48228100  0.00000000  0.78242900  1.0
  O  O76  1  0.60742900  0.92854300  0.94004500  1.0
  O  O77  1  0.98131500  0.00000000  0.78277900  1.0
  O  O78  1  0.24820450  0.92179950  0.98575100  1.0
  O  O79  1  0.25005350  0.77360550  0.29699200  1.0
  O  O80  1  0.10605550  0.92835550  0.93521000  1.0
  O  O81  1  0.89394450  0.92835550  0.06479000  1.0
  O  O82  1  0.74994650  0.77360550  0.70300800  1.0
  O  O83  1  0.24820450  0.07820050  0.98575100  1.0
  O  O84  1  0.31838250  0.14443950  0.67481800  1.0
  O  O85  1  0.39257100  0.92854300  0.05995500  1.0
  O  O86  1  0.60742900  0.07145700  0.94004500  1.0
  O  O87  1  0.32283700  0.00000000  0.70510800  1.0
  O  O88  1  0.25005350  0.22639450  0.29699200  1.0
  O  O89  1  0.17863400  0.85522800  0.61031400  1.0
  O  O90  1  0.74994650  0.22639450  0.70300800  1.0
  O  O91  1  0.10605550  0.07164450  0.93521000  1.0
  O  O92  1  0.75179550  0.07820050  0.01424900  1.0
  O  O93  1  0.17363200  0.00000000  0.63319800  1.0
  O  O94  1  0.17863400  0.14477200  0.61031400  1.0
  O  O95  1  0.01868500  0.00000000  0.21722100  1.0
