# generated using pymatgen
data_SiO2
_symmetry_space_group_name_H-M   'P 1'
_cell_length_a   18.71683679
_cell_length_b   13.52838536
_cell_length_c   7.65966090
_cell_angle_alpha   90.00000000
_cell_angle_beta   101.60501120
_cell_angle_gamma   90.00000000
_symmetry_Int_Tables_number   1
_chemical_formula_structural   SiO2
_chemical_formula_sum   'Si32 O64'
_cell_volume   1899.84411175
_cell_formula_units_Z   32
loop_
 _symmetry_equiv_pos_site_id
 _symmetry_equiv_pos_as_xyz
  1  'x, y, z'
loop_
 _atom_site_type_symbol
 _atom_site_label
 _atom_site_symmetry_multiplicity
 _atom_site_fract_x
 _atom_site_fract_y
 _atom_site_fract_z
 _atom_site_occupancy
  Si  Si0  1  0.16127412  0.79640404  0.77166242  1.0
  Si  Si1  1  0.83872588  0.79640404  0.22833758  1.0
  Si  Si2  1  0.83872588  0.20359596  0.22833758  1.0
  Si  Si3  1  0.16127412  0.20359596  0.77166242  1.0
  Si  Si4  1  0.25253647  0.61390992  0.87635531  1.0
  Si  Si5  1  0.74746353  0.61390992  0.12364469  1.0
  Si  Si6  1  0.74746353  0.38609008  0.12364469  1.0
  Si  Si7  1  0.25253647  0.38609008  0.87635531  1.0
  Si  Si8  1  0.98744380  0.88681392  0.20031649  1.0
  Si  Si9  1  0.01255620  0.88681392  0.79968351  1.0
  Si  Si10  1  0.01255620  0.11318608  0.79968351  1.0
  Si  Si11  1  0.98744380  0.11318608  0.20031649  1.0
  Si  Si12  1  0.64726528  0.38425415  0.40322011  1.0
  Si  Si13  1  0.35273472  0.38425415  0.59677989  1.0
  Si  Si14  1  0.35273472  0.61574585  0.59677989  1.0
  Si  Si15  1  0.64726528  0.61574585  0.40322011  1.0
  Si  Si16  1  0.66127412  0.29640404  0.77166242  1.0
  Si  Si17  1  0.33872588  0.29640404  0.22833758  1.0
  Si  Si18  1  0.33872588  0.70359596  0.22833758  1.0
  Si  Si19  1  0.66127412  0.70359596  0.77166242  1.0
  Si  Si20  1  0.75253647  0.11390992  0.87635531  1.0
  Si  Si21  1  0.24746353  0.11390992  0.12364469  1.0
  Si  Si22  1  0.24746353  0.88609008  0.12364469  1.0
  Si  Si23  1  0.75253647  0.88609008  0.87635531  1.0
  Si  Si24  1  0.48744380  0.38681392  0.20031649  1.0
  Si  Si25  1  0.51255620  0.38681392  0.79968351  1.0
  Si  Si26  1  0.51255620  0.61318608  0.79968351  1.0
  Si  Si27  1  0.48744380  0.61318608  0.20031649  1.0
  Si  Si28  1  0.14726528  0.88425415  0.40322011  1.0
  Si  Si29  1  0.85273472  0.88425415  0.59677989  1.0
  Si  Si30  1  0.85273472  0.11574585  0.59677989  1.0
  Si  Si31  1  0.14726528  0.11574585  0.40322011  1.0
  O  O32  1  0.68960533  0.35708074  0.24613439  1.0
  O  O33  1  0.31039467  0.35708074  0.75386561  1.0
  O  O34  1  0.31039467  0.64291926  0.75386561  1.0
  O  O35  1  0.68960533  0.64291926  0.24613439  1.0
  O  O36  1  0.92423988  0.81317534  0.23264404  1.0
  O  O37  1  0.07576012  0.81317534  0.76735596  1.0
  O  O38  1  0.07576012  0.18682466  0.76735596  1.0
  O  O39  1  0.92423988  0.18682466  0.23264404  1.0
  O  O40  1  0.29035320  0.63139951  0.08264421  1.0
  O  O41  1  0.70964680  0.63139951  0.91735579  1.0
  O  O42  1  0.70964680  0.36860049  0.91735579  1.0
  O  O43  1  0.29035320  0.36860049  0.08264421  1.0
  O  O44  1  0.18111399  0.68255138  0.82223183  1.0
  O  O45  1  0.81888601  0.68255138  0.17776817  1.0
  O  O46  1  0.81888601  0.31744862  0.17776817  1.0
  O  O47  1  0.18111399  0.31744862  0.82223183  1.0
  O  O48  1  0.65811968  0.50000000  0.45147718  1.0
  O  O49  1  0.34188032  0.50000000  0.54852282  1.0
  O  O50  1  0.00000000  0.12514544  0.00000000  1.0
  O  O51  1  0.00000000  0.87485456  0.00000000  1.0
  O  O52  1  0.17888501  0.18002786  0.57817052  1.0
  O  O53  1  0.82111499  0.18002786  0.42182948  1.0
  O  O54  1  0.82111499  0.81997214  0.42182948  1.0
  O  O55  1  0.17888501  0.81997214  0.57817052  1.0
  O  O56  1  0.06166220  0.14028688  0.33830908  1.0
  O  O57  1  0.93833780  0.14028688  0.66169092  1.0
  O  O58  1  0.93833780  0.85971312  0.66169092  1.0
  O  O59  1  0.06166220  0.85971312  0.33830908  1.0
  O  O60  1  0.46397244  0.50000000  0.23127990  1.0
  O  O61  1  0.53602756  0.50000000  0.76872010  1.0
  O  O62  1  0.22834207  0.50000000  0.84751526  1.0
  O  O63  1  0.77165793  0.50000000  0.15248474  1.0
  O  O64  1  0.18960533  0.85708074  0.24613439  1.0
  O  O65  1  0.81039467  0.85708074  0.75386561  1.0
  O  O66  1  0.81039467  0.14291926  0.75386561  1.0
  O  O67  1  0.18960533  0.14291926  0.24613439  1.0
  O  O68  1  0.42423988  0.31317534  0.23264404  1.0
  O  O69  1  0.57576012  0.31317534  0.76735596  1.0
  O  O70  1  0.57576012  0.68682466  0.76735596  1.0
  O  O71  1  0.42423988  0.68682466  0.23264404  1.0
  O  O72  1  0.79035320  0.13139951  0.08264421  1.0
  O  O73  1  0.20964680  0.13139951  0.91735579  1.0
  O  O74  1  0.20964680  0.86860049  0.91735579  1.0
  O  O75  1  0.79035320  0.86860049  0.08264421  1.0
  O  O76  1  0.68111399  0.18255138  0.82223183  1.0
  O  O77  1  0.31888601  0.18255138  0.17776817  1.0
  O  O78  1  0.31888601  0.81744862  0.17776817  1.0
  O  O79  1  0.68111399  0.81744862  0.82223183  1.0
  O  O80  1  0.15811968  0.00000000  0.45147718  1.0
  O  O81  1  0.84188032  0.00000000  0.54852282  1.0
  O  O82  1  0.50000000  0.62514544  0.00000000  1.0
  O  O83  1  0.50000000  0.37485456  0.00000000  1.0
  O  O84  1  0.67888501  0.68002786  0.57817052  1.0
  O  O85  1  0.32111499  0.68002786  0.42182948  1.0
  O  O86  1  0.32111499  0.31997214  0.42182948  1.0
  O  O87  1  0.67888501  0.31997214  0.57817052  1.0
  O  O88  1  0.56166220  0.64028689  0.33830908  1.0
  O  O89  1  0.43833780  0.64028689  0.66169092  1.0
  O  O90  1  0.43833780  0.35971312  0.66169092  1.0
  O  O91  1  0.56166220  0.35971312  0.33830908  1.0
  O  O92  1  0.96397244  0.00000000  0.23127990  1.0
  O  O93  1  0.03602756  0.00000000  0.76872010  1.0
  O  O94  1  0.72834207  0.00000000  0.84751526  1.0
  O  O95  1  0.27165793  0.00000000  0.15248474  1.0
