# generated using pymatgen
data_SiO2
_symmetry_space_group_name_H-M   'P 1'
_cell_length_a   14.07409977
_cell_length_b   13.65519714
_cell_length_c   7.46280950
_cell_angle_alpha   90.00000000
_cell_angle_beta   102.37814810
_cell_angle_gamma   90.00000000
_symmetry_Int_Tables_number   1
_chemical_formula_structural   SiO2
_chemical_formula_sum   'Si24 O48'
_cell_volume   1400.89698488
_cell_formula_units_Z   24
loop_
 _symmetry_equiv_pos_site_id
 _symmetry_equiv_pos_as_xyz
  1  'x, y, z'
loop_
 _atom_site_type_symbol
 _atom_site_label
 _atom_site_symmetry_multiplicity
 _atom_site_fract_x
 _atom_site_fract_y
 _atom_site_fract_z
 _atom_site_occupancy
  Si  Si0  1  0.11171314  0.72164907  0.08413850  1.0
  Si  Si1  1  0.88828686  0.72164907  0.91586150  1.0
  Si  Si2  1  0.88828686  0.27835093  0.91586150  1.0
  Si  Si3  1  0.11171314  0.27835093  0.08413850  1.0
  Si  Si4  1  0.23110211  0.61247538  0.84450730  1.0
  Si  Si5  1  0.76889789  0.61247538  0.15549270  1.0
  Si  Si6  1  0.76889789  0.38752462  0.15549270  1.0
  Si  Si7  1  0.23110211  0.38752462  0.84450730  1.0
  Si  Si8  1  0.10094937  0.61381192  0.45166827  1.0
  Si  Si9  1  0.89905063  0.61381192  0.54833173  1.0
  Si  Si10  1  0.89905063  0.38618808  0.54833173  1.0
  Si  Si11  1  0.10094937  0.38618808  0.45166827  1.0
  Si  Si12  1  0.61171314  0.22164907  0.08413850  1.0
  Si  Si13  1  0.38828686  0.22164907  0.91586150  1.0
  Si  Si14  1  0.38828686  0.77835093  0.91586150  1.0
  Si  Si15  1  0.61171314  0.77835093  0.08413850  1.0
  Si  Si16  1  0.73110211  0.11247538  0.84450730  1.0
  Si  Si17  1  0.26889789  0.11247538  0.15549270  1.0
  Si  Si18  1  0.26889789  0.88752462  0.15549270  1.0
  Si  Si19  1  0.73110211  0.88752462  0.84450730  1.0
  Si  Si20  1  0.60094937  0.11381192  0.45166827  1.0
  Si  Si21  1  0.39905063  0.11381192  0.54833173  1.0
  Si  Si22  1  0.39905063  0.88618808  0.54833173  1.0
  Si  Si23  1  0.60094937  0.88618808  0.45166827  1.0
  O  O24  1  0.00000000  0.74783410  0.00000000  1.0
  O  O25  1  0.00000000  0.25216590  0.00000000  1.0
  O  O26  1  0.14826018  0.64134709  0.95512406  1.0
  O  O27  1  0.85173982  0.64134709  0.04487594  1.0
  O  O28  1  0.85173982  0.35865291  0.04487594  1.0
  O  O29  1  0.14826018  0.35865291  0.95512406  1.0
  O  O30  1  0.82574686  0.17951941  0.91023182  1.0
  O  O31  1  0.17425314  0.17951941  0.08976818  1.0
  O  O32  1  0.17425314  0.82048059  0.08976818  1.0
  O  O33  1  0.82574686  0.82048059  0.91023182  1.0
  O  O34  1  0.73808129  0.50000000  0.11300921  1.0
  O  O35  1  0.26191871  0.50000000  0.88699079  1.0
  O  O36  1  0.00000000  0.35009823  0.50000000  1.0
  O  O37  1  0.00000000  0.64990177  0.50000000  1.0
  O  O38  1  0.09128862  0.50000000  0.39035111  1.0
  O  O39  1  0.90871138  0.50000000  0.60964889  1.0
  O  O40  1  0.18885387  0.37269115  0.62768486  1.0
  O  O41  1  0.81114613  0.37269115  0.37231514  1.0
  O  O42  1  0.81114613  0.62730885  0.37231514  1.0
  O  O43  1  0.18885387  0.62730885  0.62768486  1.0
  O  O44  1  0.12461718  0.32111190  0.28838830  1.0
  O  O45  1  0.87538282  0.32111190  0.71161170  1.0
  O  O46  1  0.87538282  0.67888810  0.71161170  1.0
  O  O47  1  0.12461718  0.67888810  0.28838830  1.0
  O  O48  1  0.50000000  0.24783410  0.00000000  1.0
  O  O49  1  0.50000000  0.75216590  0.00000000  1.0
  O  O50  1  0.64826018  0.14134709  0.95512406  1.0
  O  O51  1  0.35173982  0.14134709  0.04487594  1.0
  O  O52  1  0.35173982  0.85865291  0.04487594  1.0
  O  O53  1  0.64826018  0.85865291  0.95512406  1.0
  O  O54  1  0.32574686  0.67951941  0.91023182  1.0
  O  O55  1  0.67425314  0.67951941  0.08976818  1.0
  O  O56  1  0.67425314  0.32048059  0.08976818  1.0
  O  O57  1  0.32574686  0.32048059  0.91023182  1.0
  O  O58  1  0.23808129  0.00000000  0.11300921  1.0
  O  O59  1  0.76191871  0.00000000  0.88699079  1.0
  O  O60  1  0.50000000  0.85009823  0.50000000  1.0
  O  O61  1  0.50000000  0.14990177  0.50000000  1.0
  O  O62  1  0.59128862  0.00000000  0.39035111  1.0
  O  O63  1  0.40871138  0.00000000  0.60964889  1.0
  O  O64  1  0.68885387  0.87269115  0.62768486  1.0
  O  O65  1  0.31114613  0.87269115  0.37231514  1.0
  O  O66  1  0.31114613  0.12730885  0.37231514  1.0
  O  O67  1  0.68885387  0.12730885  0.62768486  1.0
  O  O68  1  0.62461718  0.82111190  0.28838830  1.0
  O  O69  1  0.37538282  0.82111190  0.71161170  1.0
  O  O70  1  0.37538282  0.17888810  0.71161170  1.0
  O  O71  1  0.62461718  0.17888810  0.28838830  1.0
